Circuit: * C:\Users\Umart\OneDrive\Documents\GitHub\ECE303LAB\Lab 5\Diffamp 3b Voltage Regulator.asc

Warning: Multiple definitions of model "2scr375p" Type: BJT
Warning: Multiple definitions of model "bc857b" Type: BJT
Warning: Multiple definitions of model "bc847c" Type: BJT
Warning: Multiple definitions of model "bc847b" Type: BJT
WARNING: Less than two connections to node vin.  This node is used by v1.
Direct Newton iteration for .op point succeeded.

Date: Thu Apr  3 12:56:20 2025
Total elapsed time: 0.066 seconds.

tnom = 27
temp = 27
method = modified trap
totiter = 2131
traniter = 2082
tranpoints = 1042
accept = 1042
rejected = 0
matrix size = 39
fillins = 16
solver = Normal
Avg thread counts: 1.7/2.3/2.3/1.7
Matrix Compiler1: 3.76 KB object code size  0.6/0.4/[0.4]
Matrix Compiler2: off  [0.3]/0.5/0.4

