LTspice 24.1.5 for Windows
Circuit: C:\Users\nrmsh\OneDrive\Documents\GitHub\ECE303LAB\Lab 5\Diffamp with changes.net
Start Time: Thu Apr  3 18:04:30 2025
solver = Normal
Maximum thread count: 20
tnom = 27
temp = 27
method = trap
Direct Newton iteration for .op point succeeded.
.step amp=0.25
.step amp=0.5
.step amp=0.75
.step amp=1
.step amp=1.25
.step amp=1.5
.step amp=1.75
.step amp=2
.step amp=2.25
.step amp=2.5
Total elapsed time: 0.658 seconds.

Files loaded:
C:\Users\nrmsh\OneDrive\Documents\GitHub\ECE303LAB\Lab 5\Diffamp with changes.net
C:\Users\nrmsh\AppData\Local\LTspice\lib\cmp\standard.dio
C:\Users\nrmsh\AppData\Local\LTspice\lib\cmp\standard.bjt


Measurement: Vc_result
  step	PP(V(Vc))	FROM	TO
     1	0.333117485046	0	0.001
     2	0.666234970093	0	0.001
     3	0.999352455139	0	0.001
     4	1.33247089386	0	0.001
     5	1.66558933258	0	0.001
     6	1.99870681763	0	0.001
     7	2.33182621002	0	0.001
     8	2.66494560242	0	0.001
     9	2.99806594849	0	0.001
    10	3.33118629456	0	0.001

Measurement: Vout_result
  step	PP(V(Vout))	FROM	TO
     1	3.33786010742e-06	0	0.001
     2	6.19888305664e-06	0	0.001
     3	9.53674316406e-06	0	0.001
     4	1.28746032715e-05	0	0.001
     5	1.62124633789e-05	0	0.001
     6	1.90734863281e-05	0	0.001
     7	2.24113464355e-05	0	0.001
     8	2.5749206543e-05	0	0.001
     9	2.86102294922e-05	0	0.001
    10	3.19480895996e-05	0	0.001
