LTspice 24.1.5 for Windows
Circuit: C:\Users\nrmsh\OneDrive\Documents\GitHub\ECE303LAB\Lab 5\Diffamp 3b Voltage Regulator.net
Start Time: Thu Apr  3 16:34:09 2025
solver = Normal
Maximum thread count: 20
tnom = 27
temp = 27
method = trap
Direct Newton iteration for .op point succeeded.
Total elapsed time: 3.951 seconds.

Files loaded:
C:\Users\nrmsh\OneDrive\Documents\GitHub\ECE303LAB\Lab 5\Diffamp 3b Voltage Regulator.net
C:\Users\nrmsh\AppData\Local\LTspice\lib\cmp\standard.dio
C:\Users\nrmsh\AppData\Local\LTspice\lib\cmp\standard.bjt

