LTspice 24.1.5 for Windows
Circuit: C:\Users\nrmsh\OneDrive\Documents\GitHub\ECE303LAB\Lab 5\during_lab.net
Start Time: Thu Apr  3 16:13:31 2025
solver = Normal
Maximum thread count: 20
tnom = 27
temp = 27
method = trap
Direct Newton iteration failed to find .op point.  (Use ".option noopiter" to skip.)
Starting Gmin stepping
Gmin = 10
Gmin = 1.07374
Gmin = 0.115292
Gmin = 0.0123794
Gmin = 0.00132923
Gmin = 0.000142725
Gmin = 1.5325e-05
Gmin = 1.6455e-06
Gmin = 1.76685e-07
Gmin = 1.89714e-08
Gmin = 2.03704e-09
Gmin = 2.18725e-10
Gmin = 2.34854e-11
Gmin = 2.52173e-12
Gmin = 2.70769e-13
Gmin = 0
Gmin stepping succeeded in finding the operating point.

.step amp=0.5
.step amp=1
.step amp=1.5
.step amp=2
.step amp=2.5
.step amp=3
.step amp=3.5
.step amp=4
.step amp=4.5
.step amp=5
Total elapsed time: 0.827 seconds.

Files loaded:
C:\Users\nrmsh\OneDrive\Documents\GitHub\ECE303LAB\Lab 5\during_lab.net
C:\Users\nrmsh\AppData\Local\LTspice\lib\cmp\standard.dio
C:\Users\nrmsh\AppData\Local\LTspice\lib\cmp\standard.bjt
C:\Users\nrmsh\OneDrive\Documents\GitHub\ECE303LAB\Lab 5\nat_semi-model_lib.lib


Measurement: Vc_result
  step	PP(V(vc))	FROM	TO
     1	0.667330741882	0	0.001
     2	1.33466148376	0	0.001
     3	2.00199222565	0	0.001
     4	2.66932201385	0	0.001
     5	3.33664989471	0	0.001
     6	4.00398159027	0	0.001
     7	4.67130947113	0	0.001
     8	5.33863830566	0	0.001
     9	6.00596046448	0	0.001
    10	6.67330169678	0	0.001

Measurement: Vout_result
  step	PP(V(Vout))	FROM	TO
     1	2.26871893894e-06	0	2.5e-05
     2	4.65290472995e-06	0	2.5e-05
     3	6.92162366889e-06	0	2.5e-05
     4	9.19034260871e-06	0	2.5e-05
     5	1.19358987059e-05	0	2.5e-05
     6	1.43200844969e-05	0	2.5e-05
     7	1.69501737419e-05	0	2.5e-05
     8	1.92188926817e-05	0	2.5e-05
     9	2.16030784728e-05	0	2.5e-05
    10	2.43486345699e-05	0	2.5e-05
