Circuit: * C:\Users\Umart\OneDrive\Documents\GitHub\ECE303LAB\Lab 5\prelab.asc

Warning: Multiple definitions of model "2scr375p" Type: BJT
Warning: Multiple definitions of model "bc857b" Type: BJT
Warning: Multiple definitions of model "bc847c" Type: BJT
Warning: Multiple definitions of model "bc847b" Type: BJT
Direct Newton iteration failed to find .op point.  (Use ".option noopiter" to skip.)
Starting Gmin stepping
Gmin = 10
Gmin = 1.07374
Gmin = 0.115292
Gmin = 0.0123794
Gmin = 0.00132923
vernier = 0.5
vernier = 0.25
vernier = 0.125
vernier = 0.0625
Gmin = 0.00100083
vernier = 0.03125
vernier = 0.015625
vernier = 0.0078125
vernier = 0.00390625
vernier = 0.00195312
Gmin = 0.00100083
vernier = 0.000976562
vernier = 0.000488281
Gmin = 0
Gmin stepping succeeded in finding the operating point.


Date: Thu Apr  3 14:35:14 2025
Total elapsed time: 0.131 seconds.

tnom = 27
temp = 27
method = modified trap
totiter = 3734
traniter = 2082
tranpoints = 1042
accept = 1042
rejected = 0
matrix size = 44
fillins = 54
solver = Normal
Avg thread counts: 1.7/2.3/2.3/1.7
Matrix Compiler1: 4.73 KB object code size  1.2/0.4/[0.4]
Matrix Compiler2: off  [0.3]/0.5/0.3

