LTspice 24.0.12 for Windows
Circuit: * C:\Users\nrmsh\OneDrive\Documents\GitHub\ECE303LAB\Lab 5\prelab.asc
Start Time: Thu Mar 27 15:17:56 2025
solver = Normal
Maximum thread count: 16



Direct Newton iteration failed to find .op point.  (Use ".option noopiter" to skip.)
Starting Gmin stepping
Gmin = 10
Gmin = 1.07374
Gmin = 0.115292
Gmin = 0.0123794
Gmin = 0.00132923
vernier = 0.5
vernier = 0.25
vernier = 0.125
vernier = 0.0625
Gmin = 0.00100083
vernier = 0.03125
vernier = 0.015625
vernier = 0.0078125
vernier = 0.00390625
vernier = 0.00195312
Gmin = 0.00100083
vernier = 0.000976562
vernier = 0.000488281
Gmin = 0
Gmin stepping succeeded in finding the operating point.

.step rload=20



.step rload=40



.step rload=60



.step rload=80



.step rload=100



.step rload=200



.step rload=500



.step rload=1000



.step rload=10000
tnom = 27
temp = 27
method = modified trap
.step rload=100000


Measurement: vc_result
  step	PP(v(vc))	FROM	TO
     1	0.0152416	0	0.00025
     2	0.0157585	0	0.00025
     3	2.24651	0	0.00025
     4	0.676554	0	0.00025
     5	0.66727	0	0.00025
     6	0.666792	0	0.00025
     7	0.666639	0	0.00025
     8	0.666717	0	0.00025
     9	0.664879	0	0.00025
    10	1.37953	0	0.00025

Measurement: vout_result
  step	PP(v(vout))	FROM	TO
     1	0.00162269	0	2.5e-05
     2	0.00161542	0	2.5e-05
     3	0.00163915	0	2.5e-05
     4	6.67572e-06	0	2.5e-05
     5	2.86102e-06	0	2.5e-05
     6	2.38977e-06	0	2.5e-05
     7	1.44169e-06	0	2.5e-05
     8	2.15136e-06	0	2.5e-05
     9	4.76837e-07	0	2.5e-05
    10	0	0	2.5e-05

Total elapsed time: 0.925 seconds.

